# created with PyMOL 3.0.4
@<TRIPOS>MOLECULE
gna_monomer3
24 24 1                 
SMALL
USER_CHARGES
@<TRIPOS>ATOM
1	   P	35.439	6.813	28.999	 P	1	ZTH5	0.000	
2	 O1P	36.378	7.780	29.603	O.2	1	ZTH5	0.000	
3	 O2P	35.942	5.660	28.227	O.2	1	ZTH5	0.000	
4	 C1G	32.276	5.026	31.355	C.3	1	ZTH5	0.000	
5	  N1	31.330	4.702	32.436	N.2	1	ZTH5	0.000	
6	  C2	30.857	3.457	32.516	C.2	1	ZTH5	0.000	
7	 C2G	33.725	4.682	31.784	C.3	1	ZTH5	0.000	
8	  O2	31.183	2.571	31.711	O.2	1	ZTH5	0.000	
9	 O2G	34.147	5.491	32.903	O.3	1	ZTH5	0.000	
10	 C3G	34.689	4.866	30.629	C.3	1	ZTH5	0.000	
11	  N3	29.981	3.173	33.545	N.2	1	ZTH5	0.000	
12	 O3G	34.477	6.206	30.139	O.3	1	ZTH5	0.000	
13	  C4	29.562	4.118	34.479	C.2	1	ZTH5	0.000	
14	  O4	28.809	3.717	35.371	O.2	1	ZTH5	0.000	
15	  C5	30.038	5.432	34.387	C.2	1	ZTH5	0.000	
16	  C6	30.920	5.697	33.343	C.2	1	ZTH5	0.000	
17	  H3	29.638	2.238	33.631	 H	1	ZTH5	0.000	
18	  H6	31.319	6.705	33.234	 H	1	ZTH5	0.000	
19	 H01	29.735	6.204	35.094	 H	1	ZTH5	0.000	
20	 H2G	33.757	3.636	32.088	 H	1	ZTH5	0.000	
21	H1G1	32.039	4.447	30.464	 H	1	ZTH5	0.000	
22	H1G2	32.225	6.085	31.106	 H	1	ZTH5	0.000	
23	H3G1	34.466	4.313	29.766	 H	1	ZTH5	0.000	
24	H3G2	35.703	4.907	30.893	 H	1	ZTH5	0.000	
@<TRIPOS>BOND
1 1 2 2
2 1 3 2
3 1 12 1
4 4 5 1
5 4 7 1
6 4 21 1
7 4 22 1
8 5 6 ar
9 5 16 ar
10 6 8 2
11 6 11 ar
12 7 9 1
13 7 10 1
14 7 20 1
15 10 12 1
16 10 23 1
17 10 24 1
18 11 13 ar
19 11 17 1
20 13 14 2
21 13 15 ar
22 15 16 ar
23 15 19 1
24 16 18 1
@<TRIPOS>SUBSTRUCTURE
1	ZTH5	1	GROUP	1 C	ZTH
