# created with PyMOL 3.0.4
@<TRIPOS>MOLECULE
gna_monomer1
24 24 1                 
SMALL
USER_CHARGES
@<TRIPOS>ATOM
1	   P	6.431	-6.811	16.816	 P	1	ZTH5	0.000	
2	 O1P	5.448	-7.864	16.450	O.2	1	ZTH5	0.000	
3	 O2P	6.512	-5.556	16.037	O.2	1	ZTH5	0.000	
4	 C1G	7.302	-6.579	21.158	C.3	1	ZTH5	0.000	
5	  N1	7.308	-6.106	22.558	N.2	1	ZTH5	0.000	
6	  C2	7.477	-4.798	22.830	C.2	1	ZTH5	0.000	
7	 C2G	5.843	-6.704	20.634	C.3	1	ZTH5	0.000	
8	  O2	7.663	-3.933	21.966	O.2	1	ZTH5	0.000	
9	 O2G	5.078	-7.582	21.474	O.3	1	ZTH5	0.000	
10	 C3G	5.806	-7.339	19.264	C.3	1	ZTH5	0.000	
11	  N3	7.451	-4.413	24.163	N.2	1	ZTH5	0.000	
12	 O3G	6.313	-6.384	18.352	O.3	1	ZTH5	0.000	
13	  C4	7.244	-5.310	25.210	C.2	1	ZTH5	0.000	
14	  O4	7.226	-4.825	26.348	O.2	1	ZTH5	0.000	
15	  C5	7.079	-6.670	24.927	C.2	1	ZTH5	0.000	
16	  C6	7.112	-7.045	23.584	C.2	1	ZTH5	0.000	
17	  H3	7.570	-3.445	24.381	 H	1	ZTH5	0.000	
18	  H6	6.968	-8.093	23.322	 H	1	ZTH5	0.000	
19	 H01	6.931	-7.404	25.719	 H	1	ZTH5	0.000	
20	 H2G	5.369	-5.724	20.604	 H	1	ZTH5	0.000	
21	H1G1	7.848	-5.888	20.517	 H	1	ZTH5	0.000	
22	H1G2	7.770	-7.560	21.092	 H	1	ZTH5	0.000	
23	H3G1	4.846	-7.481	18.870	 H	1	ZTH5	0.000	
24	H3G2	6.476	-8.132	19.122	 H	1	ZTH5	0.000	
@<TRIPOS>BOND
1 1 2 2
2 1 3 2
3 1 12 1
4 4 5 1
5 4 7 1
6 4 21 1
7 4 22 1
8 5 6 ar
9 5 16 ar
10 6 8 2
11 6 11 ar
12 7 9 1
13 7 10 1
14 7 20 1
15 10 12 1
16 10 23 1
17 10 24 1
18 11 13 ar
19 11 17 1
20 13 14 2
21 13 15 ar
22 15 16 ar
23 15 19 1
24 16 18 1
@<TRIPOS>SUBSTRUCTURE
1	ZTH5	1	GROUP	1 A	ZTH
