# created with PyMOL 3.0.4
@<TRIPOS>MOLECULE
gna_monomer4
24 24 1                 
SMALL
USER_CHARGES
@<TRIPOS>ATOM
1	   P	22.166	-3.077	34.630	 P	1	ZTH5	0.000	
2	 O1P	20.989	-2.738	35.457	O.2	1	ZTH5	0.000	
3	 O2P	22.016	-3.904	33.432	O.2	1	ZTH5	0.000	
4	 C1G	24.796	0.252	33.758	C.3	1	ZTH5	0.000	
5	  N1	25.382	1.601	33.671	N.2	1	ZTH5	0.000	
6	  C2	26.221	1.892	32.669	C.2	1	ZTH5	0.000	
7	 C2G	23.544	0.107	32.874	C.3	1	ZTH5	0.000	
8	  O2	26.525	1.067	31.802	O.2	1	ZTH5	0.000	
9	 O2G	22.508	0.961	33.407	O.3	1	ZTH5	0.000	
10	 C3G	23.055	-1.337	32.839	C.3	1	ZTH5	0.000	
11	  N3	26.751	3.168	32.605	N.2	1	ZTH5	0.000	
12	 O3G	22.903	-1.731	34.210	O.3	1	ZTH5	0.000	
13	  C4	26.437	4.155	33.543	C.2	1	ZTH5	0.000	
14	  O4	26.924	5.278	33.383	O.2	1	ZTH5	0.000	
15	  C5	25.571	3.846	34.608	C.2	1	ZTH5	0.000	
16	  C6	25.053	2.554	34.650	C.2	1	ZTH5	0.000	
17	  H3	27.358	3.401	31.845	 H	1	ZTH5	0.000	
18	  H6	24.373	2.278	35.455	 H	1	ZTH5	0.000	
19	 H01	25.316	4.586	35.366	 H	1	ZTH5	0.000	
20	 H2G	23.782	0.424	31.859	 H	1	ZTH5	0.000	
21	H1G1	25.523	-0.487	33.424	 H	1	ZTH5	0.000	
22	H1G2	24.521	0.023	34.786	 H	1	ZTH5	0.000	
23	H3G1	23.758	-2.046	32.516	 H	1	ZTH5	0.000	
24	H3G2	22.076	-1.471	32.485	 H	1	ZTH5	0.000	
@<TRIPOS>BOND
1 1 2 2
2 1 3 2
3 1 12 1
4 4 5 1
5 4 7 1
6 4 21 1
7 4 22 1
8 5 6 ar
9 5 16 ar
10 6 8 2
11 6 11 ar
12 7 9 1
13 7 10 1
14 7 20 1
15 10 12 1
16 10 23 1
17 10 24 1
18 11 13 ar
19 11 17 1
20 13 14 2
21 13 15 ar
22 15 16 ar
23 15 19 1
24 16 18 1
@<TRIPOS>SUBSTRUCTURE
1	ZTH5	1	GROUP	1 D	ZTH
