# created with PyMOL 3.0.4
@<TRIPOS>MOLECULE
gna_monomer2
24 24 1                 
SMALL
USER_CHARGES
@<TRIPOS>ATOM
1	   P	11.828	2.495	30.001	 P	1	ZTH5	0.000	
2	 O1P	12.249	2.272	31.394	O.2	1	ZTH5	0.000	
3	 O2P	12.625	3.395	29.144	O.2	1	ZTH5	0.000	
4	 C1G	10.770	-0.967	27.630	C.3	1	ZTH5	0.000	
5	  N1	10.569	-2.348	27.132	N.2	1	ZTH5	0.000	
6	  C2	10.705	-2.588	25.821	C.2	1	ZTH5	0.000	
7	 C2G	12.271	-0.777	27.940	C.3	1	ZTH5	0.000	
8	  O2	10.960	-1.695	25.009	O.2	1	ZTH5	0.000	
9	 O2G	12.638	-1.613	29.053	O.3	1	ZTH5	0.000	
10	 C3G	12.601	0.678	28.256	C.3	1	ZTH5	0.000	
11	  N3	10.549	-3.890	25.376	N.2	1	ZTH5	0.000	
12	 O3G	11.662	1.103	29.256	O.3	1	ZTH5	0.000	
13	  C4	10.283	-4.970	26.222	C.2	1	ZTH5	0.000	
14	  O4	10.202	-6.096	25.699	O.2	1	ZTH5	0.000	
15	  C5	10.122	-4.709	27.604	C.2	1	ZTH5	0.000	
16	  C6	10.285	-3.385	28.036	C.2	1	ZTH5	0.000	
17	  H3	10.668	-4.072	24.400	 H	1	ZTH5	0.000	
18	  H6	10.184	-3.154	29.097	 H	1	ZTH5	0.000	
19	 H01	9.881	-5.508	28.306	 H	1	ZTH5	0.000	
20	 H2G	12.852	-1.080	27.069	 H	1	ZTH5	0.000	
21	H1G1	10.474	-0.244	26.871	 H	1	ZTH5	0.000	
22	H1G2	10.191	-0.791	28.536	 H	1	ZTH5	0.000	
23	H3G1	12.381	1.362	27.493	 H	1	ZTH5	0.000	
24	H3G2	13.509	0.831	28.757	 H	1	ZTH5	0.000	
@<TRIPOS>BOND
1 1 2 2
2 1 3 2
3 1 12 1
4 4 5 1
5 4 7 1
6 4 21 1
7 4 22 1
8 5 6 ar
9 5 16 ar
10 6 8 2
11 6 11 ar
12 7 9 1
13 7 10 1
14 7 20 1
15 10 12 1
16 10 23 1
17 10 24 1
18 11 13 ar
19 11 17 1
20 13 14 2
21 13 15 ar
22 15 16 ar
23 15 19 1
24 16 18 1
@<TRIPOS>SUBSTRUCTURE
1	ZTH5	1	GROUP	1 B	ZTH
