@<TRIPOS>MOLECULE
*****
 27 27 0 0 0
SMALL
USER_CHARGES

@<TRIPOS>ATOM
      1 P           6.4310   -6.8110   16.8160 P.3     1  ZTH51       0.3187
      2 O1P         5.4480   -7.8640   16.4500 O.3     1  ZTH51      -0.3259
      3 O2P         6.5120   -5.5560   16.0370 O.2     1  ZTH51      -0.2620
      4 C1G         7.3020   -6.5790   21.1580 C.3     1  ZTH51       0.0557
      5 N1          7.3080   -6.1060   22.5580 N.ar    1  ZTH51      -0.2979
      6 C2          7.4770   -4.7980   22.8300 C.ar    1  ZTH51       0.3294
      7 C2G         5.8430   -6.7040   20.6340 C.3     1  ZTH51       0.0969
      8 O2          7.6630   -3.9330   21.9660 O.2     1  ZTH51      -0.2465
      9 O2G         5.0780   -7.5820   21.4740 O.3     1  ZTH51      -0.3877
     10 C3G         5.8060   -7.3390   19.2640 C.3     1  ZTH51       0.0843
     11 N3          7.4510   -4.4130   24.1630 N.ar    1  ZTH51      -0.2749
     12 O3G         6.3130   -6.3840   18.3520 O.3     1  ZTH51      -0.3074
     13 C4          7.2440   -5.3100   25.2100 C.ar    1  ZTH51       0.2539
     14 O4          7.2260   -4.8250   26.3480 O.2     1  ZTH51      -0.2677
     15 C5          7.0790   -6.6700   24.9270 C.ar    1  ZTH51       0.0191
     16 C6          7.1120   -7.0450   23.5840 C.ar    1  ZTH51       0.0145
     17 H01         6.9310   -7.4030   25.7200 H       1  ZTH51       0.0686
     18 H3          7.5700   -3.4450   24.3810 H       1  ZTH51       0.1734
     19 H6          6.9680   -8.0930   23.3220 H       1  ZTH51       0.0812
     20 H2G         5.3690   -5.7240   20.6040 H       1  ZTH51       0.0634
     21 H1G1        7.8480   -5.8880   20.5170 H       1  ZTH51       0.0519
     22 H1G2        7.7700   -7.5600   21.0920 H       1  ZTH51       0.0519
     23 H3G1        4.8460   -7.4810   18.8700 H       1  ZTH51       0.0591
     24 H3G2        6.4760   -8.1320   19.1220 H       1  ZTH51       0.0591
     25 H           5.6884   -6.1519   15.8576 H       1  UNL1        0.1593
     26 H           5.6191   -8.6622   16.9739 H       1  UNL1        0.2195
     27 H           5.5010   -8.4545   21.5000 H       1  UNL1        0.2100
@<TRIPOS>BOND
     1     1     2    1
     2     1     3    2
     3     1    12    1
     4     4     5    1
     5     4     7    1
     6     4    21    1
     7     4    22    1
     8     5     6   ar
     9     5    16   ar
    10     6     8    2
    11     6    11   ar
    12     7     9    1
    13     7    10    1
    14     7    20    1
    15    10    12    1
    16    10    23    1
    17    10    24    1
    18    11    13   ar
    19    11    18    1
    20    13    14    2
    21    13    15   ar
    22    15    16   ar
    23    15    17    1
    24    16    19    1
    25     1    25    1
    26     2    26    1
    27     9    27    1
